mol_11531192_0


 31 35  0  0  0  0  0  0  0  0999 V2000
    4.4729   -2.7533  -19.9807 N   0  0  0  0  0  0  0  0  0  0  0  0
    3.1598   -2.4332  -19.7513 C   0  0  0  0  0  0  0  0  0  0  0  0
    2.4894   -2.7311  -20.9166 C   0  0  0  0  0  0  0  0  0  0  0  0
    3.5005   -3.1592  -21.8275 C   0  0  0  0  0  0  0  0  0  0  0  0
    4.7018   -3.1671  -21.2389 N   0  0  0  0  0  0  0  0  0  0  0  0
    1.0527   -2.6804  -21.1048 C   0  0  0  0  0  0  0  0  0  0  0  0
    0.4137   -1.4276  -21.0561 C   0  0  0  0  0  0  0  0  0  0  0  0
   -0.9689   -1.3766  -21.0317 C   0  0  0  0  0  0  0  0  0  0  0  0
   -1.7022   -2.5527  -21.0915 C   0  0  0  0  0  0  0  0  0  0  0  0
   -1.1084   -3.8001  -21.1933 C   0  0  0  0  0  0  0  0  0  0  0  0
    0.2899   -3.8603  -21.1989 C   0  0  0  0  0  0  0  0  0  0  0  0
   -3.1097   -2.2075  -20.9747 C   0  0  0  0  0  0  0  0  0  0  0  0
   -4.0606   -3.0870  -20.9604 N   0  0  0  0  0  0  0  0  0  0  0  0
   -5.3026   -2.4580  -20.8183 O   0  0  0  0  0  0  0  0  0  0  0  0
   -3.2566   -0.7074  -20.8576 C   0  0  0  0  0  0  0  0  0  0  0  0
   -1.8232   -0.1596  -20.8823 C   0  0  0  0  0  0  0  0  0  0  0  0
   -5.9184   -3.2137  -20.8027 H   0  0  0  0  0  0  0  0  0  0  0  0
    7.5109   -1.7094  -20.3556 C   0  0  0  0  0  0  0  0  0  0  0  0
    6.5501   -1.5446  -19.1714 C   0  0  0  0  0  0  0  0  0  0  0  0
    5.5605   -2.7203  -19.0002 C   0  0  0  0  0  0  0  0  0  0  0  0
    6.3347   -4.0455  -18.9705 C   0  0  0  0  0  0  0  0  0  0  0  0
    7.2063   -4.2203  -20.2127 C   0  0  0  0  0  0  0  0  0  0  0  0
    8.1981   -3.0692  -20.3651 C   0  0  0  0  0  0  0  0  0  0  0  0
    7.9160   -5.4522  -20.1132 O   0  0  0  0  0  0  0  0  0  0  0  0
    8.5791   -5.3691  -19.4069 H   0  0  0  0  0  0  0  0  0  0  0  0
    3.3286   -3.5932  -23.2086 C   0  0  0  0  0  0  0  0  0  0  0  0
    2.5871   -4.7392  -23.4923 C   0  0  0  0  0  0  0  0  0  0  0  0
    2.3615   -5.0567  -24.8195 C   0  0  0  0  0  0  0  0  0  0  0  0
    2.8253   -4.3267  -25.8576 N   0  0  0  0  0  0  0  0  0  0  0  0
    3.5613   -3.2361  -25.5545 C   0  0  0  0  0  0  0  0  0  0  0  0
    3.8399   -2.8322  -24.2614 C   0  0  0  0  0  0  0  0  0  0  0  0
 18 19  1  0  0  0
 19 20  1  0  0  0
 20 21  1  0  0  0
 21 22  1  0  0  0
 22 23  1  0  0  0
 18 23  1  0  0  0
 22 24  1  0  0  0
 20  1  1  0  0  0
  1  2  1  0  0  0
  2  3  2  0  0  0
  3  4  1  0  0  0
  4  5  2  0  0  0
  1  5  1  0  0  0
  4 26  1  0  0  0
 26 27  2  0  0  0
 27 28  1  0  0  0
 28 29  2  0  0  0
 29 30  1  0  0  0
 30 31  2  0  0  0
 26 31  1  0  0  0
  3  6  1  0  0  0
  6  7  2  0  0  0
  7  8  1  0  0  0
  8  9  2  0  0  0
  9 10  1  0  0  0
 10 11  2  0  0  0
  6 11  1  0  0  0
  9 12  1  0  0  0
 12 13  2  0  0  0
 13 14  1  0  0  0
 12 15  1  0  0  0
 15 16  1  0  0  0
  8 16  1  0  0  0
 24 25  1  0  0  0
 14 17  1  0  0  0
M  END
> <minimizedAffinity>
-11.57488

$$$$
mol_11531192_0


 31 35  0  0  0  0  0  0  0  0999 V2000
    5.5701   -3.1493  -21.9363 N   0  0  0  0  0  0  0  0  0  0  0  0
    4.3241   -2.6873  -21.5993 C   0  0  0  0  0  0  0  0  0  0  0  0
    3.4326   -3.4313  -22.3394 C   0  0  0  0  0  0  0  0  0  0  0  0
    4.2420   -4.2742  -23.1577 C   0  0  0  0  0  0  0  0  0  0  0  0
    5.5410   -4.0888  -22.8971 N   0  0  0  0  0  0  0  0  0  0  0  0
    1.9883   -3.3881  -22.2203 C   0  0  0  0  0  0  0  0  0  0  0  0
    1.3966   -2.2484  -21.6448 C   0  0  0  0  0  0  0  0  0  0  0  0
    0.0472   -2.2710  -21.3391 C   0  0  0  0  0  0  0  0  0  0  0  0
   -0.7068   -3.3972  -21.6355 C   0  0  0  0  0  0  0  0  0  0  0  0
   -0.1698   -4.5166  -22.2497 C   0  0  0  0  0  0  0  0  0  0  0  0
    1.1985   -4.5081  -22.5440 C   0  0  0  0  0  0  0  0  0  0  0  0
   -2.0566   -3.1726  -21.1438 C   0  0  0  0  0  0  0  0  0  0  0  0
   -3.0034   -4.0520  -21.2332 N   0  0  0  0  0  0  0  0  0  0  0  0
   -4.1802   -3.5597  -20.6578 O   0  0  0  0  0  0  0  0  0  0  0  0
   -2.1475   -1.7987  -20.5195 C   0  0  0  0  0  0  0  0  0  0  0  0
   -0.7364   -1.2075  -20.6405 C   0  0  0  0  0  0  0  0  0  0  0  0
   -4.7959   -4.3073  -20.7704 H   0  0  0  0  0  0  0  0  0  0  0  0
    7.1005   -4.4395  -19.3961 C   0  0  0  0  0  0  0  0  0  0  0  0
    7.6622   -3.9082  -20.7208 C   0  0  0  0  0  0  0  0  0  0  0  0
    6.8406   -2.7477  -21.3283 C   0  0  0  0  0  0  0  0  0  0  0  0
    6.6402   -1.6506  -20.2734 C   0  0  0  0  0  0  0  0  0  0  0  0
    5.9887   -2.1971  -19.0046 C   0  0  0  0  0  0  0  0  0  0  0  0
    6.8154   -3.3270  -18.3948 C   0  0  0  0  0  0  0  0  0  0  0  0
    5.8539   -1.1397  -18.0586 O   0  0  0  0  0  0  0  0  0  0  0  0
    6.7405   -0.8931  -17.7445 H   0  0  0  0  0  0  0  0  0  0  0  0
    3.7964   -5.2636  -24.1314 C   0  0  0  0  0  0  0  0  0  0  0  0
    3.4655   -4.8676  -25.4264 C   0  0  0  0  0  0  0  0  0  0  0  0
    3.1482   -5.8502  -26.3467 C   0  0  0  0  0  0  0  0  0  0  0  0
    3.1312   -7.1709  -26.0621 N   0  0  0  0  0  0  0  0  0  0  0  0
    3.4313   -7.5246  -24.7942 C   0  0  0  0  0  0  0  0  0  0  0  0
    3.7649   -6.6199  -23.8026 C   0  0  0  0  0  0  0  0  0  0  0  0
 18 19  1  0  0  0
 19 20  1  0  0  0
 20 21  1  0  0  0
 21 22  1  0  0  0
 22 23  1  0  0  0
 18 23  1  0  0  0
 22 24  1  0  0  0
 20  1  1  0  0  0
  1  2  1  0  0  0
  2  3  2  0  0  0
  3  4  1  0  0  0
  4  5  2  0  0  0
  1  5  1  0  0  0
  4 26  1  0  0  0
 26 27  2  0  0  0
 27 28  1  0  0  0
 28 29  2  0  0  0
 29 30  1  0  0  0
 30 31  2  0  0  0
 26 31  1  0  0  0
  3  6  1  0  0  0
  6  7  2  0  0  0
  7  8  1  0  0  0
  8  9  2  0  0  0
  9 10  1  0  0  0
 10 11  2  0  0  0
  6 11  1  0  0  0
  9 12  1  0  0  0
 12 13  2  0  0  0
 13 14  1  0  0  0
 12 15  1  0  0  0
 15 16  1  0  0  0
  8 16  1  0  0  0
 24 25  1  0  0  0
 14 17  1  0  0  0
M  END
> <minimizedAffinity>
-11.30297

$$$$
mol_11531192_0


 31 35  0  0  0  0  0  0  0  0999 V2000
    4.2076   -3.8891  -23.2601 N   0  0  0  0  0  0  0  0  0  0  0  0
    2.8488   -4.0366  -23.3664 C   0  0  0  0  0  0  0  0  0  0  0  0
    2.3163   -3.4523  -22.2391 C   0  0  0  0  0  0  0  0  0  0  0  0
    3.4429   -3.0412  -21.4665 C   0  0  0  0  0  0  0  0  0  0  0  0
    4.5860   -3.3148  -22.1054 N   0  0  0  0  0  0  0  0  0  0  0  0
    0.9050   -3.2498  -21.9752 C   0  0  0  0  0  0  0  0  0  0  0  0
    0.4218   -1.9311  -21.8870 C   0  0  0  0  0  0  0  0  0  0  0  0
   -0.8697   -1.7150  -21.4396 C   0  0  0  0  0  0  0  0  0  0  0  0
   -1.6776   -2.7967  -21.1205 C   0  0  0  0  0  0  0  0  0  0  0  0
   -1.2536   -4.1095  -21.2453 C   0  0  0  0  0  0  0  0  0  0  0  0
    0.0580   -4.3348  -21.6787 C   0  0  0  0  0  0  0  0  0  0  0  0
   -2.9385   -2.2783  -20.6152 C   0  0  0  0  0  0  0  0  0  0  0  0
   -3.9031   -3.0341  -20.1955 N   0  0  0  0  0  0  0  0  0  0  0  0
   -4.9762   -2.2524  -19.7534 O   0  0  0  0  0  0  0  0  0  0  0  0
   -2.9152   -0.7670  -20.6467 C   0  0  0  0  0  0  0  0  0  0  0  0
   -1.5264   -0.3970  -21.1850 C   0  0  0  0  0  0  0  0  0  0  0  0
   -5.6143   -2.9253  -19.4524 H   0  0  0  0  0  0  0  0  0  0  0  0
    4.0207   -6.1334  -25.5813 C   0  0  0  0  0  0  0  0  0  0  0  0
    4.6134   -4.7193  -25.6217 C   0  0  0  0  0  0  0  0  0  0  0  0
    5.2035   -4.2493  -24.2719 C   0  0  0  0  0  0  0  0  0  0  0  0
    6.1883   -5.3026  -23.7453 C   0  0  0  0  0  0  0  0  0  0  0  0
    5.5356   -6.6784  -23.6253 C   0  0  0  0  0  0  0  0  0  0  0  0
    4.9751   -7.1491  -24.9655 C   0  0  0  0  0  0  0  0  0  0  0  0
    6.5043   -7.6135  -23.1579 O   0  0  0  0  0  0  0  0  0  0  0  0
    7.1584   -7.7571  -23.8629 H   0  0  0  0  0  0  0  0  0  0  0  0
    3.4379   -2.3654  -20.1747 C   0  0  0  0  0  0  0  0  0  0  0  0
    2.4471   -2.6579  -19.2386 C   0  0  0  0  0  0  0  0  0  0  0  0
    2.5391   -2.0726  -17.9887 C   0  0  0  0  0  0  0  0  0  0  0  0
    3.5277   -1.2267  -17.6245 N   0  0  0  0  0  0  0  0  0  0  0  0
    4.4600   -0.9413  -18.5585 C   0  0  0  0  0  0  0  0  0  0  0  0
    4.4590   -1.4767  -19.8337 C   0  0  0  0  0  0  0  0  0  0  0  0
 18 19  1  0  0  0
 19 20  1  0  0  0
 20 21  1  0  0  0
 21 22  1  0  0  0
 22 23  1  0  0  0
 18 23  1  0  0  0
 22 24  1  0  0  0
 20  1  1  0  0  0
  1  2  1  0  0  0
  2  3  2  0  0  0
  3  4  1  0  0  0
  4  5  2  0  0  0
  1  5  1  0  0  0
  4 26  1  0  0  0
 26 27  2  0  0  0
 27 28  1  0  0  0
 28 29  2  0  0  0
 29 30  1  0  0  0
 30 31  2  0  0  0
 26 31  1  0  0  0
  3  6  1  0  0  0
  6  7  2  0  0  0
  7  8  1  0  0  0
  8  9  2  0  0  0
  9 10  1  0  0  0
 10 11  2  0  0  0
  6 11  1  0  0  0
  9 12  1  0  0  0
 12 13  2  0  0  0
 13 14  1  0  0  0
 12 15  1  0  0  0
 15 16  1  0  0  0
  8 16  1  0  0  0
 24 25  1  0  0  0
 14 17  1  0  0  0
M  END
> <minimizedAffinity>
-10.95589

$$$$
mol_44587190_1


 28 31  0  0  0  0  0  0  0  0999 V2000
    2.4050   -2.7274  -20.8640 C   0  0  0  0  0  0  0  0  0  0  0  0
    3.1010   -2.5569  -19.6896 C   0  0  0  0  0  0  0  0  0  0  0  0
    4.3976   -2.8758  -19.9761 N   0  0  0  0  0  0  0  0  0  0  0  0
    4.6020   -3.2015  -21.2684 N   0  0  0  0  0  0  0  0  0  0  0  0
    3.3808   -3.1367  -21.8209 C   0  0  0  0  0  0  0  0  0  0  0  0
   -1.7841    0.0610  -20.8593 C   0  0  0  0  0  0  0  0  0  0  0  0
   -3.2430   -0.4131  -20.9219 C   0  0  0  0  0  0  0  0  0  0  0  0
   -3.1660   -1.9200  -21.0060 C   0  0  0  0  0  0  0  0  0  0  0  0
   -4.1598   -2.7509  -21.0411 N   0  0  0  0  0  0  0  0  0  0  0  0
   -5.3748   -2.0588  -20.9883 O   0  0  0  0  0  0  0  0  0  0  0  0
   -1.7737   -2.3360  -21.0431 C   0  0  0  0  0  0  0  0  0  0  0  0
   -0.9837   -1.1970  -20.9620 C   0  0  0  0  0  0  0  0  0  0  0  0
    0.3960   -1.3154  -20.9473 C   0  0  0  0  0  0  0  0  0  0  0  0
    0.9699   -2.5970  -21.0062 C   0  0  0  0  0  0  0  0  0  0  0  0
    0.1509   -3.7392  -21.1044 C   0  0  0  0  0  0  0  0  0  0  0  0
   -1.2417   -3.6118  -21.1216 C   0  0  0  0  0  0  0  0  0  0  0  0
   -6.0281   -2.7824  -21.0131 H   0  0  0  0  0  0  0  0  0  0  0  0
    3.1404   -3.4928  -23.2129 C   0  0  0  0  0  0  0  0  0  0  0  0
    2.3498   -4.5975  -23.5331 C   0  0  0  0  0  0  0  0  0  0  0  0
    2.2508   -4.9654  -24.8628 C   0  0  0  0  0  0  0  0  0  0  0  0
    2.8767   -4.3174  -25.8686 N   0  0  0  0  0  0  0  0  0  0  0  0
    3.6213   -3.2418  -25.5314 C   0  0  0  0  0  0  0  0  0  0  0  0
    3.7790   -2.7899  -24.2333 C   0  0  0  0  0  0  0  0  0  0  0  0
    5.5113   -2.8784  -19.0463 C   0  0  0  0  0  0  0  0  0  0  0  0
    6.6106   -3.8861  -19.3880 C   0  0  0  0  0  0  0  0  0  0  0  0
    7.4208   -4.3854  -18.1959 C   0  0  0  0  0  0  0  0  0  0  0  0
    8.1556   -3.3253  -17.6033 O   0  0  0  0  0  0  0  0  0  0  0  0
    9.0058   -3.2867  -18.0858 H   0  0  0  0  0  0  0  0  0  0  0  0
  6  7  1  0  0  0
  7  8  1  0  0  0
  8  9  2  0  0  0
  9 10  1  0  0  0
  8 11  1  0  0  0
 11 12  2  0  0  0
  6 12  1  0  0  0
 12 13  1  0  0  0
 13 14  2  0  0  0
 14 15  1  0  0  0
 15 16  2  0  0  0
 11 16  1  0  0  0
 14  1  1  0  0  0
  1  2  2  0  0  0
  2  3  1  0  0  0
  3  4  1  0  0  0
  4  5  2  0  0  0
  1  5  1  0  0  0
  5 18  1  0  0  0
 18 19  2  0  0  0
 19 20  1  0  0  0
 20 21  2  0  0  0
 21 22  1  0  0  0
 22 23  2  0  0  0
 18 23  1  0  0  0
  3 24  1  0  0  0
 24 25  1  0  0  0
 25 26  1  0  0  0
 26 27  1  0  0  0
 10 17  1  0  0  0
 27 28  1  0  0  0
M  END
> <minimizedAffinity>
-9.94814

$$$$
mol_44587190_1


 28 31  0  0  0  0  0  0  0  0999 V2000
    2.5051   -2.7558  -20.8839 C   0  0  0  0  0  0  0  0  0  0  0  0
    3.2095   -2.5797  -19.7154 C   0  0  0  0  0  0  0  0  0  0  0  0
    4.4994   -2.9235  -20.0032 N   0  0  0  0  0  0  0  0  0  0  0  0
    4.6923   -3.2709  -21.2916 N   0  0  0  0  0  0  0  0  0  0  0  0
    3.4696   -3.1945  -21.8393 C   0  0  0  0  0  0  0  0  0  0  0  0
   -1.6415    0.0954  -20.8757 C   0  0  0  0  0  0  0  0  0  0  0  0
   -3.1076   -0.3570  -20.9308 C   0  0  0  0  0  0  0  0  0  0  0  0
   -3.0536   -1.8652  -21.0086 C   0  0  0  0  0  0  0  0  0  0  0  0
   -4.0599   -2.6812  -21.0365 N   0  0  0  0  0  0  0  0  0  0  0  0
   -5.2641   -1.9707  -20.9822 O   0  0  0  0  0  0  0  0  0  0  0  0
   -1.6679   -2.3023  -21.0491 C   0  0  0  0  0  0  0  0  0  0  0  0
   -0.8605   -1.1750  -20.9759 C   0  0  0  0  0  0  0  0  0  0  0  0
    0.5173   -1.3141  -20.9658 C   0  0  0  0  0  0  0  0  0  0  0  0
    1.0717   -2.6045  -21.0213 C   0  0  0  0  0  0  0  0  0  0  0  0
    0.2352   -3.7346  -21.1116 C   0  0  0  0  0  0  0  0  0  0  0  0
   -1.1554   -3.5863  -21.1242 C   0  0  0  0  0  0  0  0  0  0  0  0
   -5.9283   -2.6845  -21.0014 H   0  0  0  0  0  0  0  0  0  0  0  0
    3.2167   -3.5667  -23.2248 C   0  0  0  0  0  0  0  0  0  0  0  0
    3.7741   -2.8261  -24.2683 C   0  0  0  0  0  0  0  0  0  0  0  0
    3.4074   -3.1452  -25.5632 C   0  0  0  0  0  0  0  0  0  0  0  0
    2.5395   -4.1315  -25.8753 N   0  0  0  0  0  0  0  0  0  0  0  0
    2.0288   -4.8428  -24.8466 C   0  0  0  0  0  0  0  0  0  0  0  0
    2.3364   -4.6069  -23.5185 C   0  0  0  0  0  0  0  0  0  0  0  0
    5.6174   -2.9305  -19.0786 C   0  0  0  0  0  0  0  0  0  0  0  0
    6.5858   -1.7597  -19.2574 C   0  0  0  0  0  0  0  0  0  0  0  0
    8.0320   -2.1561  -19.5374 C   0  0  0  0  0  0  0  0  0  0  0  0
    8.8514   -1.9163  -18.4033 O   0  0  0  0  0  0  0  0  0  0  0  0
    9.1550   -0.9898  -18.4838 H   0  0  0  0  0  0  0  0  0  0  0  0
  6  7  1  0  0  0
  7  8  1  0  0  0
  8  9  2  0  0  0
  9 10  1  0  0  0
  8 11  1  0  0  0
 11 12  2  0  0  0
  6 12  1  0  0  0
 12 13  1  0  0  0
 13 14  2  0  0  0
 14 15  1  0  0  0
 15 16  2  0  0  0
 11 16  1  0  0  0
 14  1  1  0  0  0
  1  2  2  0  0  0
  2  3  1  0  0  0
  3  4  1  0  0  0
  4  5  2  0  0  0
  1  5  1  0  0  0
  5 18  1  0  0  0
 18 19  2  0  0  0
 19 20  1  0  0  0
 20 21  2  0  0  0
 21 22  1  0  0  0
 22 23  2  0  0  0
 18 23  1  0  0  0
  3 24  1  0  0  0
 24 25  1  0  0  0
 25 26  1  0  0  0
 26 27  1  0  0  0
 10 17  1  0  0  0
 27 28  1  0  0  0
M  END
> <minimizedAffinity>
-9.74876

$$$$
mol_44587190_1


 28 31  0  0  0  0  0  0  0  0999 V2000
    2.1537   -3.3757  -22.1227 C   0  0  0  0  0  0  0  0  0  0  0  0
    2.6372   -3.9427  -23.2792 C   0  0  0  0  0  0  0  0  0  0  0  0
    3.9975   -3.8573  -23.1947 N   0  0  0  0  0  0  0  0  0  0  0  0
    4.4351   -3.3117  -22.0420 N   0  0  0  0  0  0  0  0  0  0  0  0
    3.3111   -2.9898  -21.3832 C   0  0  0  0  0  0  0  0  0  0  0  0
   -1.7166   -0.3109  -21.1472 C   0  0  0  0  0  0  0  0  0  0  0  0
   -3.1357   -0.6841  -20.6956 C   0  0  0  0  0  0  0  0  0  0  0  0
   -3.1424   -2.1933  -20.6190 C   0  0  0  0  0  0  0  0  0  0  0  0
   -4.1246   -2.9507  -20.2438 N   0  0  0  0  0  0  0  0  0  0  0  0
   -5.2349   -2.1723  -19.8984 O   0  0  0  0  0  0  0  0  0  0  0  0
   -1.8494   -2.7088  -21.0377 C   0  0  0  0  0  0  0  0  0  0  0  0
   -1.0349   -1.6265  -21.3430 C   0  0  0  0  0  0  0  0  0  0  0  0
    0.2731   -1.8404  -21.7444 C   0  0  0  0  0  0  0  0  0  0  0  0
    0.7532   -3.1589  -21.8257 C   0  0  0  0  0  0  0  0  0  0  0  0
   -0.0944   -4.2441  -21.5271 C   0  0  0  0  0  0  0  0  0  0  0  0
   -1.4151   -4.0205  -21.1252 C   0  0  0  0  0  0  0  0  0  0  0  0
   -5.8873   -2.8464  -19.6321 H   0  0  0  0  0  0  0  0  0  0  0  0
    3.3356   -2.2975  -20.1018 C   0  0  0  0  0  0  0  0  0  0  0  0
    4.4122   -1.4767  -19.7626 C   0  0  0  0  0  0  0  0  0  0  0  0
    4.4466   -0.9388  -18.4888 C   0  0  0  0  0  0  0  0  0  0  0  0
    3.4985   -1.1638  -17.5541 N   0  0  0  0  0  0  0  0  0  0  0  0
    2.4595   -1.9481  -17.9154 C   0  0  0  0  0  0  0  0  0  0  0  0
    2.3295   -2.5278  -19.1648 C   0  0  0  0  0  0  0  0  0  0  0  0
    4.9534   -4.2969  -24.1937 C   0  0  0  0  0  0  0  0  0  0  0  0
    5.5654   -5.6708  -23.9136 C   0  0  0  0  0  0  0  0  0  0  0  0
    4.8236   -6.8470  -24.5408 C   0  0  0  0  0  0  0  0  0  0  0  0
    3.7720   -7.2905  -23.6967 O   0  0  0  0  0  0  0  0  0  0  0  0
    4.1732   -7.9463  -23.0916 H   0  0  0  0  0  0  0  0  0  0  0  0
  6  7  1  0  0  0
  7  8  1  0  0  0
  8  9  2  0  0  0
  9 10  1  0  0  0
  8 11  1  0  0  0
 11 12  2  0  0  0
  6 12  1  0  0  0
 12 13  1  0  0  0
 13 14  2  0  0  0
 14 15  1  0  0  0
 15 16  2  0  0  0
 11 16  1  0  0  0
 14  1  1  0  0  0
  1  2  2